<?xml version="1.0" encoding="UTF-8"?>

<!-- generated on Mon Nov 11 19:31:07 2024 by Eclipse SUMO netconvert Version 1.8.0
<configuration xmlns:xsi="http://www.w3.org/2001/XMLSchema-instance" xsi:noNamespaceSchemaLocation="http://sumo.dlr.de/xsd/netconvertConfiguration.xsd">

    <input>
        <osm-files value="/home/veins/Downloads/map.osm"/>
    </input>

    <output>
        <output-file value="/home/veins/Downloads/multi-lane/aaucph.net.xml"/>
    </output>

    <projection>
        <proj.utm value="true"/>
    </projection>

    <processing>
        <speed-in-kmh value="true"/>
        <geometry.remove value="true"/>
        <roundabouts.guess value="true"/>
    </processing>

    <building_defaults>
        <default.lanenumber value="2"/>
    </building_defaults>

    <tls_building>
        <tls.discard-simple value="true"/>
        <tls.join value="true"/>
        <tls.guess-signals value="true"/>
    </tls_building>

    <ramp_guessing>
        <ramps.guess value="true"/>
    </ramp_guessing>

    <junctions>
        <no-internal-links value="true"/>
        <junctions.join value="true"/>
    </junctions>

    <report>
        <verbose value="true"/>
        <aggregate-warnings value="5"/>
    </report>

</configuration>
-->

<net version="1.6" junctionCornerDetail="5" limitTurnSpeed="5.50" xmlns:xsi="http://www.w3.org/2001/XMLSchema-instance" xsi:noNamespaceSchemaLocation="http://sumo.dlr.de/xsd/net_file.xsd">

    <location netOffset="-343728.65,-6168977.52" convBoundary="0.00,0.00,2805.54,2338.97" origBoundary="12.516288,55.641792,12.594634,55.679134" projParameter="+proj=utm +zone=33 +ellps=WGS84 +datum=WGS84 +units=m +no_defs"/>

    <type id="highway.bridleway" priority="1" numLanes="1" speed="2.78" allow="pedestrian" oneway="1" width="2.00"/>
    <type id="highway.bus_guideway" priority="1" numLanes="1" speed="27.78" allow="bus" oneway="1"/>
    <type id="highway.cycleway" priority="1" numLanes="1" speed="8.33" allow="bicycle" oneway="0" width="1.00"/>
    <type id="highway.footway" priority="1" numLanes="1" speed="2.78" allow="pedestrian" oneway="1" width="2.00"/>
    <type id="highway.ford" priority="1" numLanes="1" speed="2.78" allow="army" oneway="0"/>
    <type id="highway.living_street" priority="2" numLanes="1" speed="2.78" disallow="tram rail_urban rail rail_electric rail_fast ship" oneway="0"/>
    <type id="highway.motorway" priority="14" numLanes="2" speed="39.44" allow="private emergency authority army vip passenger hov taxi bus coach delivery truck trailer motorcycle evehicle custom1 custom2" oneway="1"/>
    <type id="highway.motorway_link" priority="9" numLanes="1" speed="22.22" allow="private emergency authority army vip passenger hov taxi bus coach delivery truck trailer motorcycle evehicle custom1 custom2" oneway="1"/>
    <type id="highway.path" priority="1" numLanes="1" speed="2.78" allow="pedestrian bicycle" oneway="0" width="2.00"/>
    <type id="highway.pedestrian" priority="1" numLanes="1" speed="2.78" allow="pedestrian" oneway="1" width="2.00"/>
    <type id="highway.primary" priority="12" numLanes="2" speed="27.78" disallow="tram rail_urban rail rail_electric rail_fast ship" oneway="0"/>
    <type id="highway.primary_link" priority="7" numLanes="1" speed="22.22" disallow="tram rail_urban rail rail_electric rail_fast ship" oneway="0"/>
    <type id="highway.raceway" priority="15" numLanes="2" speed="83.33" allow="vip" oneway="0"/>
    <type id="highway.residential" priority="3" numLanes="1" speed="13.89" disallow="tram rail_urban rail rail_electric rail_fast ship" oneway="0"/>
    <type id="highway.secondary" priority="11" numLanes="1" speed="27.78" disallow="tram rail_urban rail rail_electric rail_fast ship" oneway="0"/>
    <type id="highway.secondary_link" priority="6" numLanes="1" speed="22.22" disallow="tram rail_urban rail rail_electric rail_fast ship" oneway="0"/>
    <type id="highway.service" priority="1" numLanes="1" speed="5.56" allow="pedestrian delivery bicycle" oneway="0"/>
    <type id="highway.stairs" priority="1" numLanes="1" speed="1.39" allow="pedestrian" oneway="1" width="2.00"/>
    <type id="highway.step" priority="1" numLanes="1" speed="1.39" allow="pedestrian" oneway="1" width="2.00"/>
    <type id="highway.steps" priority="1" numLanes="1" speed="1.39" allow="pedestrian" oneway="1" width="2.00"/>
    <type id="highway.tertiary" priority="10" numLanes="1" speed="22.22" disallow="tram rail_urban rail rail_electric rail_fast ship" oneway="0"/>
    <type id="highway.tertiary_link" priority="5" numLanes="1" speed="22.22" disallow="tram rail_urban rail rail_electric rail_fast ship" oneway="0"/>
    <type id="highway.track" priority="1" numLanes="1" speed="5.56" allow="pedestrian motorcycle moped bicycle" oneway="0"/>
    <type id="highway.trunk" priority="13" numLanes="2" speed="27.78" disallow="pedestrian bicycle tram rail_urban rail rail_electric rail_fast ship" oneway="0"/>
    <type id="highway.trunk_link" priority="8" numLanes="1" speed="22.22" disallow="pedestrian bicycle tram rail_urban rail rail_electric rail_fast ship" oneway="0"/>
    <type id="highway.unclassified" priority="4" numLanes="1" speed="13.89" disallow="tram rail_urban rail rail_electric rail_fast ship" oneway="0"/>
    <type id="highway.unsurfaced" priority="1" numLanes="1" speed="8.33" disallow="tram rail_urban rail rail_electric rail_fast ship" oneway="0"/>
    <type id="railway.highspeed" priority="21" numLanes="1" speed="69.44" allow="rail_fast" oneway="1"/>
    <type id="railway.light_rail" priority="19" numLanes="1" speed="27.78" allow="rail_urban" oneway="1"/>
    <type id="railway.preserved" priority="16" numLanes="1" speed="27.78" allow="rail" oneway="1"/>
    <type id="railway.rail" priority="20" numLanes="1" speed="44.44" allow="rail" oneway="1"/>
    <type id="railway.subway" priority="18" numLanes="1" speed="27.78" allow="rail_urban" oneway="1"/>
    <type id="railway.tram" priority="17" numLanes="1" speed="13.89" allow="tram" oneway="1"/>

    <edge id="-1010747031#0" from="3835758315" to="25307137" priority="3" type="highway.residential">
        <lane id="-1010747031#0_0" index="0" disallow="tram rail_urban rail rail_electric rail_fast ship" speed="13.89" length="22.90" shape="1613.39,227.66 1601.36,234.87"/>
    </edge>
    <edge id="-1010747031#1" from="11950410720" to="3835758315" priority="3" type="highway.residential">
        <lane id="-1010747031#1_0" index="0" disallow="tram rail_urban rail rail_electric rail_fast ship" speed="13.89" length="21.95" shape="1633.39,215.51 1621.62,222.68"/>
    </edge>
    <edge id="-1010747031#2" from="11950415184" to="11950410720" priority="3" type="highway.residential">
        <lane id="-1010747031#2_0" index="0" disallow="tram rail_urban rail rail_electric rail_fast ship" speed="13.89" length="18.64" shape="1647.40,206.99 1637.66,212.91"/>
    </edge>
    <edge id="-1010747031#3" from="9743437626" to="11950415184" priority="3" type="highway.residential">
        <lane id="-1010747031#3_0" index="0" disallow="tram rail_urban rail rail_electric rail_fast ship" speed="13.89" length="20.04" shape="1664.78,196.41 1655.43,202.10"/>
    </edge>
    <edge id="-1010747031#4" from="3835758310" to="9743437626" priority="3" type="highway.residential">
        <lane id="-1010747031#4_0" index="0" disallow="tram rail_urban rail rail_electric rail_fast ship" speed="13.89" length="12.69" shape="1675.51,190.29 1672.74,191.81"/>
    </edge>
    <edge id="-1010747031#5" from="3835758303" to="3835758310" priority="3" type="highway.residential">
        <lane id="-1010747031#5_0" index="0" disallow="tram rail_urban rail rail_electric rail_fast ship" speed="13.89" length="67.48" shape="1739.08,156.19 1683.73,185.83"/>
    </edge>
    <edge id="-1010747033#0" from="9743437625" to="8459772" priority="3" type="highway.residential" shape="1561.32,258.69 1522.89,283.62 1509.09,293.51">
        <lane id="-1010747033#0_0" index="0" disallow="tram rail_urban rail rail_electric rail_fast ship" speed="13.89" length="62.79" shape="1558.13,262.67 1523.80,284.94 1516.01,290.52"/>
    </edge>
    <edge id="-1010747033#1" from="25307137" to="9743437625" priority="3" type="highway.residential">
        <lane id="-1010747033#1_0" index="0" disallow="tram rail_urban rail rail_electric rail_fast ship" speed="13.89" length="41.66" shape="1593.32,239.87 1566.02,257.55"/>
    </edge>
    <edge id="-1020491548" from="10069968258" to="10069968257" priority="2" type="highway.living_street">
        <lane id="-1020491548_0" index="0" disallow="tram rail_urban rail rail_electric rail_fast ship" speed="2.78" length="57.31" shape="1365.56,647.38 1388.26,683.59"/>
    </edge>
    <edge id="-1020491549" from="9412207053" to="9743390710" priority="3" type="highway.residential" shape="1292.93,686.83 1319.71,728.44 1344.95,735.14 1374.84,741.95">
        <lane id="-1020491549_0" index="0" disallow="tram rail_urban rail rail_electric rail_fast ship" speed="13.89" length="106.25" shape="1298.20,692.05 1320.72,727.05 1345.33,733.59 1367.50,738.64"/>
    </edge>
    <edge id="-1060502680" from="9743437630" to="9743437625" priority="1" type="highway.service" shape="1585.62,181.39 1584.39,192.27 1582.20,197.55 1576.05,202.74 1551.80,217.82 1544.91,224.85 1544.85,232.64 1546.93,238.55 1561.32,258.69">
        <lane id="-1060502680_0" index="0" allow="pedestrian delivery bicycle" speed="5.56" length="101.92" shape="1586.70,186.07 1585.96,192.67 1583.53,198.52 1576.99,204.03 1552.80,219.08 1546.51,225.51 1546.45,232.37 1548.36,237.80 1559.81,253.81"/>
    </edge>
    <edge id="-1060502681#0" from="9743437630" to="25307142" priority="1" type="highway.service" shape="1585.62,181.39 1575.70,179.73 1562.37,178.42 1540.00,179.42 1517.59,178.76">
        <lane id="-1060502681#0_0" index="0" allow="pedestrian delivery bicycle" speed="5.56" length="68.26" shape="1580.88,182.22 1575.49,181.32 1562.33,180.03 1540.01,181.02 1517.54,180.36"/>
    </edge>
    <edge id="-1060502681#1" from="9743437626" to="9743437630" priority="1" type="highway.service" shape="1667.71,192.75 1656.85,170.43 1651.29,166.86 1635.52,170.21 1600.15,175.50 1585.62,181.39">
        <lane id="-1060502681#1_0" index="0" allow="pedestrian delivery bicycle" speed="5.56" length="98.99" shape="1664.15,189.08 1655.61,171.54 1650.98,168.57 1635.80,171.78 1600.57,177.06 1589.38,181.59"/>
    </edge>
    <edge id="-1067547978" from="9711796153" to="1555439284" priority="1" type="highway.service" shape="1506.24,566.67 1502.66,570.64 1512.84,587.67">
        <lane id="-1067547978_0" index="0" allow="pedestrian delivery bicycle" speed="5.56" length="32.45" shape="1510.46,564.38 1504.64,570.83 1511.02,581.51"/>
    </edge>
    <edge id="-1088303581" from="3835758302" to="3835758310" priority="1" type="highway.service" shape="1730.96,141.08 1671.80,173.56 1678.84,186.64">
        <lane id="-1088303581_0" index="0" allow="pedestrian delivery bicycle" speed="5.56" length="82.34" shape="1731.73,142.49 1673.96,174.20 1678.02,181.75"/>
    </edge>
    <edge id="-108849013#0" from="cluster_1247869973_1524424899" to="1270978737" priority="1" type="highway.service" shape="1991.16,960.79 1998.16,955.53">
        <lane id="-108849013#0_0" index="0" allow="pedestrian delivery bicycle" speed="5.56" length="12.19" shape="1992.82,957.54 1993.56,956.98"/>
    </edge>
    <edge id="-108849013#2" from="1247869998" to="cluster_1247869973_1524424899" priority="1" type="highway.service" shape="1969.28,972.98 1981.41,964.80 1984.79,963.56">
        <lane id="-108849013#2_0" index="0" allow="pedestrian delivery bicycle" speed="5.56" length="21.70" shape="1972.18,969.09 1980.53,963.46"/>
    </edge>
    <edge id="-108849013#3" from="1247869456" to="1247869998" priority="1" type="highway.service">
        <lane id="-108849013#3_0" index="0" allow="pedestrian delivery bicycle" speed="5.56" length="43.68" shape="1933.33,995.73 1964.42,974.38"/>
    </edge>
    <edge id="-108849018" from="2022036970" to="1247869998" priority="1" type="highway.service" shape="1888.88,854.06 1956.75,954.49 1959.62,958.94 1967.91,971.17 1969.28,972.98">
        <lane id="-108849018_0" index="0" allow="pedestrian delivery bicycle" speed="5.56" length="143.55" shape="1890.20,853.16 1958.09,953.61 1960.95,958.06 1967.74,968.07"/>
    </edge>
    <edge id="-108849056" from="cluster_1247869973_1524424899" to="1247870064" priority="1" type="highway.service" shape="1991.16,960.79 1986.49,958.98 1966.10,948.37 1963.97,949.67">
        <lane id="-108849056_0" index="0" allow="pedestrian delivery bicycle" speed="5.56" length="28.60" shape="1982.30,958.60 1966.16,950.21 1964.80,951.04"/>
    </edge>
    <edge id="-1090946707" from="9992401371" to="9992401379" priority="1" type="highway.service" shape="1273.58,1126.51 1281.47,1136.85 1288.96,1147.00">
        <lane id="-1090946707_0" index="0" allow="pedestrian delivery bicycle" speed="5.56" length="25.62" shape="1277.73,1129.31 1282.75,1135.89 1288.16,1143.23"/>
    </edge>
    <edge id="-1090946709#0" from="9992401379" to="9992401375" priority="1" type="highway.service">
        <lane id="-1090946709#0_0" index="0" allow="pedestrian delivery bicycle" speed="5.56" length="26.78" shape="1292.34,1148.91 1305.33,1166.61"/>
    </edge>
    <edge id="-1090946713#0" from="9992401368" to="9992401379" priority="1" type="highway.path" shape="1326.87,1205.05 1374.29,1222.89 1389.50,1229.06 1395.16,1231.08 1396.42,1230.30 1397.62,1224.75 1395.99,1222.42 1391.93,1216.63 1384.69,1206.77 1325.65,1125.46 1318.73,1124.92 1288.96,1147.00">
        <lane id="-1090946713#0_0" index="0" allow="pedestrian bicycle" speed="2.78" length="246.89" width="2.00" shape="1329.61,1205.01 1374.66,1221.96 1389.86,1228.13 1395.04,1229.97 1395.53,1229.67 1396.55,1224.97 1395.17,1223.00 1391.11,1217.22 1383.88,1207.36 1325.11,1126.42 1319.02,1125.95 1293.33,1145.00"/>
    </edge>
    <edge id="-1090946713#1" from="9992401379" to="9992401368" priority="1" type="highway.path" shape="1288.96,1147.00 1255.70,1172.11 1255.96,1177.51 1326.87,1205.05">
        <lane id="-1090946713#1_0" index="0" allow="pedestrian bicycle" speed="2.78" length="123.14" width="2.00" shape="1285.79,1150.65 1256.73,1172.59 1256.93,1176.82 1324.93,1203.23"/>
    </edge>
    <edge id="-109096944#0" from="5930797980" to="1249999705" priority="1" type="highway.service" shape="2538.25,946.71 2549.97,961.65 2561.69,976.61 2573.41,991.56 2585.13,1006.51 2596.85,1021.46 2608.57,1036.41 2614.51,1043.85 2611.56,1051.53 2606.52,1064.65 2583.45,1081.31">
        <lane id="-109096944#0_0" index="0" allow="pedestrian delivery bicycle" speed="5.56" length="174.24" shape="2541.30,948.00 2551.23,960.67 2562.95,975.63 2574.67,990.57 2586.39,1005.52 2598.11,1020.47 2609.82,1035.42 2616.33,1043.57 2613.05,1052.10 2607.85,1065.67 2588.23,1079.84"/>
    </edge>
    <edge id="-109096944#1" from="5930797978" to="5930797980" priority="1" type="highway.service" shape="2526.53,931.76 2527.52,934.67 2538.25,946.71">
        <lane id="-109096944#1_0" index="0" allow="pedestrian delivery bicycle" speed="5.56" length="19.17" shape="2529.50,934.49 2533.12,938.55"/>
    </edge>
    <edge id="-109096944#2" from="1249999723" to="5930797978" priority="1" type="highway.service">
        <lane id="-109096944#2_0" index="0" allow="pedestrian delivery bicycle" speed="5.56" length="18.99" shape="2517.86,918.10 2522.36,923.84"/>
    </edge>
    <edge id="-109096944#3" from="1249999721" to="1249999723" priority="1" type="highway.service" shape="2468.71,918.38 2476.56,913.51 2514.81,916.81">
        <lane id="-109096944#3_0" index="0" allow="pedestrian delivery bicycle" speed="5.56" length="47.63" shape="2472.03,914.44 2476.17,911.87 2509.34,914.73"/>
    </edge>
    <edge id="-1094962941#0" from="10027835734" to="cluster_11524436271_274393692" priority="1" type="highway.service" shape="1682.64,420.89 1682.13,412.37 1684.81,404.62 1704.83,367.91 1722.37,337.77 1732.66,339.16 1746.69,342.27 1758.02,332.49 1853.63,242.17">
        <lane id="-1094962941#0_0" index="0" allow="pedestrian delivery bicycle" speed="5.56" length="264.58" shape="1680.90,418.67 1680.51,412.15 1683.34,403.97 1703.44,367.13 1721.52,336.05 1732.94,337.58 1746.25,340.54 1756.94,331.30 1846.43,246.76"/>
    </edge>
    <edge id="-1095903786" from="cluster_10004960719_2472107031" to="2472107027" priority="1" type="highway.cycleway" shape="1495.16,1049.37 1515.62,1021.95">
        <lane id="-1095903786_0" index="0" allow="bicycle" speed="8.33" length="36.80" width="1.00" shape="1498.88,1043.55 1513.12,1024.46"/>
    </edge>
    <edge id="-109714034#0" from="1365821768" to="1255242258" priority="1" type="highway.path" shape="801.17,316.51 798.85,312.07 793.42,302.55">
        <lane id="-109714034#0_0" index="0" allow="pedestrian bicycle" speed="2.78" length="15.97" width="2.00" shape="797.76,312.17 794.77,306.94"/>
    </edge>
    <edge id="-109714034#1" from="11442957148" to="1365821768" priority="1" type="highway.path" shape="813.19,421.30 813.26,419.02 807.40,405.39 799.57,396.26 798.08,385.51 801.53,356.40 804.43,326.28 803.69,319.89 801.17,316.51">
        <lane id="-109714034#1_0" index="0" allow="pedestrian bicycle" speed="2.78" length="110.16" width="2.00" shape="811.82,418.21 806.54,405.93 798.62,396.68 797.07,385.52 800.53,356.29 803.42,326.29 802.73,320.27 801.76,318.97"/>
    </edge>
    <edge id="-109714034#2" from="282699946" to="11442957148" priority="1" type="highway.path" shape="806.23,455.57 812.90,431.44 813.19,421.30">
        <lane id="-109714034#2_0" index="0" allow="pedestrian bicycle" speed="2.78" length="35.18" width="2.00" shape="806.63,450.36 811.91,431.29 812.08,425.20"/>
    </edge>
    <edge id="-110493287" from="1261739654" to="1261739653" priority="1" type="highway.path">
        <lane id="-110493287_0" index="0" allow="pedestrian bicycle" speed="2.78" length="26.72" width="2.00" shape="1754.20,984.33 1741.01,966.06"/>
    </edge>
    <edge id="-1111032564" from="10166154937" to="10166154938" priority="1" type="highway.service">
        <lane id="-1111032564_0" index="0" allow="pedestrian delivery bicycle" speed="5.56" length="37.42" shape="1497.01,1206.62 1503.49,1179.53"/>
    </edge>
    <edge id="-111585314#0" from="6060923187" to="5591554752" priority="1" type="highway.path">
        <lane id="-111585314#0_0" index="0" allow="pedestrian bicycle" speed="2.78" length="8.57" width="2.00" shape="2249.48,897.94 2250.97,896.95"/>
    </edge>
    <edge id="-111585314#1" from="5843694077" to="6060923187" priority="1" type="highway.path" shape="2179.70,937.37 2211.32,928.26 2231.07,911.21 2245.36,901.86 2248.33,899.90">
        <lane id="-111585314#1_0" index="0" allow="pedestrian bicycle" speed="2.78" length="79.63" width="2.00" shape="2181.49,935.82 2210.83,927.36 2230.47,910.41 2244.81,901.02 2246.08,900.18"/>
    </edge>
    <edge id="-111585314#2" from="1270978761" to="5843694077" priority="1" type="highway.path">
        <lane id="-111585314#2_0" index="0" allow="pedestrian bicycle" speed="2.78" length="11.02" width="2.00" shape="2173.32,940.58 2177.31,937.82"/>
    </edge>
    <edge id="-111585314#3" from="3822952752" to="1270978761" priority="1" type="highway.path">
        <lane id="-111585314#3_0" index="0" allow="pedestrian bicycle" speed="2.78" length="49.66" width="2.00" shape="2131.24,969.31 2167.48,944.60"/>
    </edge>
    <edge id="-111585314#4" from="1270978909" to="3822952752" priority="1" type="highway.path">
        <lane id="-111585314#4_0" index="0" allow="pedestrian bicycle" speed="2.78" length="27.94" width="2.00" shape="2110.06,984.19 2127.14,972.15"/>
    </edge>
    <edge id="-111585314#5" from="1270979200" to="1270978909" priority="1" type="highway.path">
        <lane id="-111585314#5_0" index="0" allow="pedestrian bicycle" speed="2.78" length="63.77" width="2.00" shape="2056.28,1020.86 2102.32,989.55"/>
    </edge>
    <edge id="-111585314#6" from="1270979126" to="1270979200" priority="1" type="highway.path">
        <lane id="-111585314#6_0" index="0" allow="pedestrian bicycle" speed="2.78" length="9.94" width="2.00" shape="2046.61,1026.77 2050.28,1024.63"/>
    </edge>
    <edge id="-111585314#7" from="5929015164" to="1270979126" priority="1" type="highway.path">
        <lane id="-111585314#7_0" index="0" allow="pedestrian bicycle" speed="2.78" length="22.54" width="2.00" shape="2026.29,1030.03 2042.82,1027.93"/>
    </edge>
    <edge id="-111585314#8" from="cluster_1270978813_8608027003" to="5929015164" priority="1" type="highway.path" shape="1942.07,1045.46 2023.11,1031.44">
        <lane id="-111585314#8_0" index="0" allow="pedestrian bicycle" speed="2.78" length="86.23" width="2.00" shape="1944.34,1044.05 2019.41,1031.07"/>
    </edge>
    <edge id="-111585317#0" from="580836122" to="cluster_1247869465_3664103872_3664103875" priority="1" type="highway.path" shape="2395.50,471.71 2365.69,435.67">
        <lane id="-111585317#0_0" index="0" allow="pedestrian bicycle" speed="2.78" length="46.56" width="2.00" shape="2393.43,470.78 2367.19,439.05"/>
    </edge>
    <edge id="-111585317#1" from="1270978708" to="580836122" priority="1" type="highway.path" shape="2423.36,539.35 2416.67,533.18 2406.38,514.24 2398.67,490.64 2395.50,471.71">
        <lane id="-111585317#1_0" index="0" allow="pedestrian bicycle" speed="2.78" length="74.67" width="2.00" shape="2420.27,537.86 2415.87,533.80 2405.46,514.64 2397.70,490.88 2395.34,476.82"/>
    </edge>
    <edge id="-111585317#2" from="580836122" to="1270978708" priority="1" type="highway.path" shape="2395.50,471.71 2413.92,478.82 2429.33,487.72 2441.35,496.56 2456.45,509.57 2465.82,533.95 2464.78,543.75 2461.62,549.71 2456.77,552.63 2449.41,552.25 2440.43,550.30 2431.98,546.63 2423.36,539.35">
        <lane id="-111585317#2_0" index="0" allow="pedestrian bicycle" speed="2.78" length="157.83" width="2.00" shape="2400.53,472.58 2414.35,477.91 2429.87,486.88 2441.98,495.78 2457.29,508.97 2466.83,533.82 2465.75,544.05 2462.37,550.42 2457.03,553.64 2449.28,553.25 2440.12,551.26 2431.44,547.49 2424.06,541.25"/>
    </edge>
    <edge id="-111585323#0" from="10156555286" to="10156555280" priority="3" type="highway.residential" shape="1992.25,641.66 1927.76,685.42 1912.90,626.16">
        <lane id="-111585323#0_0" index="0" disallow="tram rail_urban rail rail_electric rail_fast ship" speed="13.89" length="139.02" shape="1991.07,644.39 1926.76,688.03 1911.97,629.03"/>
    </edge>
    <edge id="-111585326" from="311193194" to="1270979200" priority="1" type="highway.path" shape="2042.80,1015.27 2049.85,1018.16 2054.04,1023.59">
        <lane id="-111585326_0" index="0" allow="pedestrian bicycle" speed="2.78" length="14.48" width="2.00" shape="2047.12,1015.97 2050.47,1017.34 2052.52,1019.99"/>
    </edge>
    <edge id="-111585355#0" from="5887504171" to="cluster_311362151_5887523805" priority="10" type="highway.tertiary" shape="2179.56,768.14 2180.63,780.28 2183.98,791.71 2190.01,800.84">
        <lane id="-111585355#0_0" index="0" disallow="tram rail_urban rail rail_electric rail_fast ship" speed="11.11" length="36.12" shape="2181.56,772.65 2182.21,779.98 2185.45,791.03 2187.21,793.69"/>
    </edge>
    <edge id="-111585355#1" from="cluster_3836572046_5887504892" to="5887504171" priority="10" type="highway.tertiary" shape="2177.46,744.46 2179.56,768.14">
        <lane id="-111585355#1_0" index="0" disallow="tram rail_urban rail rail_electric rail_fast ship" speed="11.11" length="24.47" shape="2179.73,751.94 2180.73,763.29"/>
    </edge>
    <edge id="-111585355#2" from="cluster_18222744_5587944732_5887504888_5887523814" to="cluster_3836572046_5887504892" priority="10" type="highway.tertiary" shape="2164.42,661.90 2168.79,669.90 2170.08,674.09 2171.41,678.41 2172.47,687.94 2177.46,744.46">
        <lane id="-111585355#2_0" index="0" disallow="tram rail_urban rail rail_electric rail_fast ship" speed="11.11" length="91.55" shape="2164.97,659.58 2165.07,659.76"/>
    </edge>
    <edge id="-1123326754#0" from="274394389" to="cluster_118781_118787_1555492641_1555492657_6952603832_6952603833" priority="1" type="highway.service" shape="1660.68,459.62 1636.50,450.78">
        <lane id="-1123326754#0_0" index="0" allow="pedestrian delivery bicycle" speed="5.56" length="45.43" shape="1655.69,459.50 1643.82,455.16"/>
    </edge>
    <edge id="-1123326754#1" from="274394353" to="274394389" priority="1" type="highway.service" shape="1639.03,524.16 1648.01,493.32 1652.71,480.82 1660.68,459.62">
        <lane id="-1123326754#1_0" index="0" allow="pedestrian delivery bicycle" speed="5.56" length="68.12" shape="1638.79,519.26 1646.49,492.81 1651.21,480.26 1657.52,463.48"/>
    </edge>
    <edge id="-112973851#0" from="286513056" to="cluster_3691541851_791996" priority="3" type="highway.residential" shape="1215.79,1065.38 1130.88,1120.07 1127.46,1123.09 1123.62,1128.30 1118.39,1138.78">
        <lane id="-112973851#0_0" index="0" disallow="tram rail_urban rail rail_electric rail_fast ship" speed="11.11" length="126.83" shape="1210.43,1070.73 1131.85,1121.35 1128.64,1124.17 1124.99,1129.14 1123.05,1133.04"/>
    </edge>
    <edge id="-112973851#1" from="8130376023" to="286513056" priority="3" type="highway.residential">
        <lane id="-112973851#1_0" index="0" disallow="tram rail_urban rail rail_electric rail_fast ship" speed="11.11" length="23.43" shape="1233.90,1055.19 1222.55,1062.78"/>
    </edge>
    <edge id="-112973851#2" from="286512464" to="8130376023" priority="3" type="highway.residential">
        <lane id="-112973851#2_0" index="0" disallow="tram rail_urban rail rail_electric rail_fast ship" speed="11.11" length="18.90" shape="1250.62,1044.01 1238.06,1052.41"/>
    </edge>
    <edge id="-1135302748" from="282710625" to="282710357" priority="1" type="highway.service" shape="1168.97,751.43 1167.63,749.48 1164.19,743.91 1159.62,737.50">
        <lane id="-1135302748_0" index="0" allow="pedestrian delivery bicycle" speed="5.56" length="16.78" shape="1166.30,750.36 1162.85,744.80 1161.08,742.31"/>
    </edge>
    <edge id="-115678963" from="1306239643" to="1254113889" priority="1" type="highway.service" shape="1015.02,1263.49 1009.56,1257.28 1003.79,1251.75 989.76,1242.13 975.86,1236.05 958.68,1231.44 871.99,1198.61 835.00,1189.31 816.25,1182.50">
        <lane id="-115678963_0" index="0" allow="pedestrian delivery bicycle" speed="5.56" length="217.02" shape="1013.82,1264.55 1008.40,1258.39 1002.78,1252.99 988.98,1243.54 975.33,1237.57 958.19,1232.97 871.51,1200.14 834.53,1190.85 820.63,1185.79"/>
    </edge>
    <edge id="-115780183#0" from="1307110569" to="1307110562" priority="1" type="highway.path" shape="1686.33,1135.08 1774.97,1074.86 1809.99,1068.94">
        <lane id="-115780183#0_0" index="0" allow="pedestrian bicycle" speed="2.78" length="142.68" width="2.00" shape="1689.66,1131.61 1774.59,1073.91 1807.30,1068.38"/>
    </edge>
    <edge id="-115780183#1" from="9934420183" to="1307110569" priority="1" type="highway.path" shape="1677.06,1144.84 1680.17,1142.67 1686.33,1135.08">
        <lane id="-115780183#1_0" index="0" allow="pedestrian bicycle" speed="2.78" length="13.57" width="2.00" shape="1677.95,1143.00 1679.48,1141.93 1682.12,1138.68"/>
    </edge>
    <edge id="-115780183#2" from="8303973404" to="9934420183" priority="1" type="highway.path" shape="1644.40,1162.05 1650.08,1158.74 1657.78,1155.71 1665.25,1153.09 1677.06,1144.84">
        <lane id="-115780183#2_0" index="0" allow="pedestrian bicycle" speed="2.78" length="37.17" width="2.00" shape="1646.91,1159.43 1649.64,1157.84 1657.43,1154.77 1664.79,1152.19 1673.73,1145.95"/>
    </edge>
    <edge id="-115780183#3" from="8303973405" to="8303973404" priority="1" type="highway.path" shape="1629.91,1182.43 1640.20,1166.89 1644.40,1162.05">
        <lane id="-115780183#3_0" index="0" allow="pedestrian bicycle" speed="2.78" length="25.04" width="2.00" shape="1632.59,1176.57 1639.40,1166.28 1640.82,1164.65"/>
    </edge>
    <edge id="-115780183#4" from="1307110561" to="8303973405" priority="1" type="highway.path">
        <lane id="-115780183#4_0" index="0" allow="pedestrian bicycle" speed="2.78" length="55.34" width="2.00" shape="1586.82,1208.86 1627.76,1182.62"/>
    </edge>
    <edge id="-1164817473" from="10833609303" to="10833609304" priority="1" type="highway.service">
        <lane id="-1164817473_0" index="0" allow="pedestrian delivery bicycle" speed="5.56" length="39.92" shape="817.13,702.53 784.66,698.60"/>
    </edge>
    <edge id="-118751027" from="1334873903" to="1334873900" priority="1" type="highway.path" shape="915.59,307.35 963.17,325.56 1014.90,345.30 1055.62,362.41">
        <lane id="-118751027_0" index="0" allow="pedestrian bicycle" speed="2.78" length="150.48" width="2.00" shape="921.12,308.40 963.52,324.62 1015.27,344.38 1050.80,359.30"/>
    </edge>
    <edge id="-11948849#0" from="cluster_1555699529_18164870" to="18164869" priority="3" type="highway.residential" shape="994.49,608.60 983.87,607.36 925.02,600.49">
        <lane id="-11948849#0_0" index="0" disallow="tram rail_urban rail rail_electric rail_fast ship" speed="11.11" length="72.29" shape="978.97,608.40 931.96,602.91"/>
    </edge>
    <edge id="-11948849#2" from="282701764" to="cluster_1555699529_18164870" priority="3" type="highway.residential" shape="1023.39,611.98 999.16,609.14">
        <lane id="-11948849#2_0" index="0" disallow="tram rail_urban rail rail_electric rail_fast ship" speed="11.11" length="26.75" shape="1016.10,612.74 1001.84,611.07"/>
    </edge>
    <edge id="-11948849#3" from="279991458" to="282701764" priority="3" type="highway.residential">
        <lane id="-11948849#3_0" index="0" disallow="tram rail_urban rail rail_electric rail_fast ship" speed="11.11" length="41.60" shape="1057.12,617.66 1030.38,614.43"/>
    </edge>
    <edge id="-11948849#4" from="cluster_18164872_282701757_5423505604" to="279991458" priority="3" type="highway.residential" shape="1106.42,621.56 1064.70,616.96">