<?xml version="1.0" encoding="UTF-8"?>

<!-- generated on Mon Nov 11 22:16:49 2024 by Eclipse SUMO duarouter Version 1.8.0
<configuration xmlns:xsi="http://www.w3.org/2001/XMLSchema-instance" xsi:noNamespaceSchemaLocation="http://sumo.dlr.de/xsd/duarouterConfiguration.xsd">

    <input>
        <net-file value="/home/veins/Downloads/multi-lane/aaucph.net.xml"/>
        <route-files value="/home/veins/Downloads/multi-lane/aaucph.trips.xml"/>
    </input>

    <output>
        <output-file value="/home/veins/Downloads/multi-lane/aaucph.rou.xml"/>
        <alternatives-output value="/home/veins/Downloads/multi-lane/aaucph.rou.alt.xml"/>
        <write-trips value="true"/>
    </output>

    <processing>
        <max-alternatives value="3"/>
        <repair value="true"/>
        <routing-algorithm value="dijkstra"/>
    </processing>

    <report>
        <ignore-errors value="true"/>
    </report>

</configuration>
-->

<routes xmlns:xsi="http://www.w3.org/2001/XMLSchema-instance" xsi:noNamespaceSchemaLocation="http://sumo.dlr.de/xsd/routes_file.xsd">
    <vType id="bus" probability="0.10" vClass="bus" guiShape="bus" color="green"/>
    <trip id="0" type="bus" depart="0.00" departLane="best" departSpeed="max" from="630489172" to="600446141#3"/>
    <vType id="emergency" maxSpeed="27.78" probability="0.10" vClass="emergency" guiShape="emergency" color="red"/>
    <trip id="1" type="emergency" depart="2.00" departLane="best" departSpeed="max" from="3663846#2" to="672675019#2"/>
    <vType id="car" probability="0.70" vClass="passenger" guiShape="passenger" color="yellow"/>
    <trip id="4" type="car" depart="8.00" departLane="best" departSpeed="max" from="-505257874#2" to="705279867#4"/>
    <trip id="5" type="car" depart="10.00" departLane="best" departSpeed="max" from="-24418179#2" to="3663849#5"/>
    <trip id="6" type="emergency" depart="12.00" departLane="best" departSpeed="max" from="-3676664#1" to="3663841#1"/>
    <trip id="7" type="car" depart="14.00" departLane="best" departSpeed="max" from="3542460#0" to="-600446141#1"/>
    <trip id="9" type="emergency" depart="18.00" departLane="best" departSpeed="max" from="-363633974#1" to="422789536"/>
    <trip id="10" type="car" depart="20.00" departLane="best" departSpeed="max" from="3676665#16" to="834616393#1"/>
    <trip id="11" type="car" depart="22.00" departLane="best" departSpeed="max" from="-25680833#1" to="-25915016#2"/>
    <trip id="12" type="car" depart="24.00" departLane="best" departSpeed="max" from="91655817#0" to="-471047014"/>
    <trip id="13" type="car" depart="26.00" departLane="best" departSpeed="max" from="363633973#0" to="11948850#10"/>
    <trip id="14" type="car" depart="28.00" departLane="best" departSpeed="max" from="-979876182" to="416688435#1"/>
    <trip id="15" type="car" depart="30.00" departLane="best" departSpeed="max" from="737390306" to="-28350280#1"/>
    <trip id="16" type="car" depart="32.00" departLane="best" departSpeed="max" from="-1299036737#1" to="-25916549"/>
    <trip id="18" type="car" depart="36.00" departLane="best" departSpeed="max" from="363633973#3" to="26234964#1"/>
    <trip id="19" type="car" depart="38.00" departLane="best" departSpeed="max" from="11948850#7" to="422789544#1"/>
    <trip id="20" type="car" depart="40.00" departLane="best" departSpeed="max" from="-3663844#4" to="-28350280#0"/>
    <trip id="21" type="car" depart="42.00" departLane="best" departSpeed="max" from="25916549" to="1010747031#4"/>
    <trip id="22" type="car" depart="44.00" departLane="best" departSpeed="max" from="-658420721" to="-26234980#0"/>
    <trip id="23" type="car" depart="46.00" departLane="best" departSpeed="max" from="-25680833#1" to="-3676665#17"/>
    <vType id="truck" probability="0.10" vClass="truck" guiShape="truck" color="blue"/>
    <trip id="24" type="truck" depart="48.00" departLane="best" departSpeed="max" from="1880590#11" to="-618468225"/>
    <trip id="25" type="bus" depart="50.00" departLane="best" departSpeed="max" from="-3663838#2" to="-629818102#1"/>
    <trip id="26" type="bus" depart="52.00" departLane="best" departSpeed="max" from="3676663#3" to="-893279609#0"/>
    <trip id="27" type="car" depart="54.00" departLane="best" departSpeed="max" from="559697158#1" to="-26588093#0"/>
    <trip id="28" type="car" depart="56.00" departLane="best" departSpeed="max" from="-26234964#1" to="-893279609#0"/>
    <trip id="30" type="car" depart="60.00" departLane="best" departSpeed="max" from="-658420721" to="-907363810#0"/>
    <trip id="31" type="car" depart="62.00" departLane="best" departSpeed="max" from="-3542460#1" to="-3663840#4"/>
    <trip id="32" type="emergency" depart="64.00" departLane="best" departSpeed="max" from="-3663839#11" to="-24418179#0"/>
    <trip id="33" type="car" depart="66.00" departLane="best" departSpeed="max" from="-168256686#8" to="-893279609#0"/>
    <trip id="35" type="car" depart="70.00" departLane="best" departSpeed="max" from="-1010747031#5" to="1299036737#1"/>
    <trip id="38" type="car" depart="76.00" departLane="best" departSpeed="max" from="-979876182" to="3663838#2"/>
    <trip id="39" type="car" depart="78.00" departLane="best" departSpeed="max" from="91655817#0" to="422789538#0"/>
    <trip id="40" type="car" depart="80.00" departLane="best" departSpeed="max" from="-658420721" to="25680833#1"/>
    <trip id="41" type="truck" depart="82.00" departLane="best" departSpeed="max" from="979876182" to="-602918861#3"/>
    <trip id="42" type="car" depart="84.00" departLane="best" departSpeed="max" from="-3663850#0" to="-380316352#0"/>
    <trip id="43" type="car" depart="86.00" departLane="best" departSpeed="max" from="1880590#9" to="-416688408#0"/>
    <trip id="44" type="car" depart="88.00" departLane="best" departSpeed="max" from="28350205#1" to="-24418179#7"/>
    <trip id="45" type="car" depart="90.00" departLane="best" departSpeed="max" from="1221938479#1" to="3542460#1"/>
    <trip id="47" type="bus" depart="94.00" departLane="best" departSpeed="max" from="28336636#3" to="-98679383#0"/>
    <trip id="49" type="car" depart="98.00" departLane="best" departSpeed="max" from="-25680833#1" to="-25916546"/>
    <trip id="50" type="emergency" depart="100.00" departLane="best" departSpeed="max" from="-41936508#3" to="1010747031#5"/>
    <trip id="53" type="truck" depart="106.00" departLane="best" departSpeed="max" from="11948850#4" to="-1880590#3"/>
    <trip id="55" type="car" depart="110.00" departLane="best" departSpeed="max" from="-11948850#10" to="24418179#6"/>
    <trip id="56" type="car" depart="112.00" departLane="best" departSpeed="max" from="168251834#0" to="3663839#11"/>
    <trip id="57" type="car" depart="114.00" departLane="best" departSpeed="max" from="422789562" to="-24418179#0"/>
    <trip id="58" type="car" depart="116.00" departLane="best" departSpeed="max" from="-3663849#7" to="90527580"/>
    <trip id="59" type="truck" depart="118.00" departLane="best" departSpeed="max" from="26588093#0" to="559697158#2"/>
    <trip id="60" type="car" depart="120.00" departLane="best" departSpeed="max" from="25916558" to="-3676665#6"/>
    <trip id="61" type="car" depart="122.00" departLane="best" departSpeed="max" from="-28350205#0" to="237108777#1"/>
    <trip id="62" type="car" depart="124.00" departLane="best" departSpeed="max" from="3991416#1" to="28350122#1"/>
    <trip id="64" type="car" depart="128.00" departLane="best" departSpeed="max" from="363633973#0" to="1010747031#5"/>
    <trip id="65" type="car" depart="130.00" departLane="best" departSpeed="max" from="25916553" to="-3542460#0"/>
    <trip id="68" type="car" depart="136.00" departLane="best" departSpeed="max" from="-1020491548" to="-26588093#0"/>
    <trip id="69" type="truck" depart="138.00" departLane="best" departSpeed="max" from="-658420721" to="-25684160#0"/>
    <trip id="70" type="car" depart="140.00" departLane="best" departSpeed="max" from="-3676663#2" to="-956073355#1"/>
    <trip id="73" type="car" depart="146.00" departLane="best" departSpeed="max" from="422789544#1" to="416688408#2"/>
    <trip id="74" type="car" depart="148.00" departLane="best" departSpeed="max" from="25916544#4" to="-24418179#0"/>
    <trip id="75" type="car" depart="150.00" departLane="best" departSpeed="max" from="705279869#5" to="-1010747031#4"/>
    <trip id="76" type="car" depart="152.00" departLane="best" departSpeed="max" from="-3676664#0" to="184021719#2"/>
    <trip id="77" type="car" depart="154.00" departLane="best" departSpeed="max" from="168251835#1" to="90527580"/>
    <trip id="78" type="emergency" depart="156.00" departLane="best" departSpeed="max" from="91655817#0" to="422789537#3"/>
    <trip id="79" type="car" depart="158.00" departLane="best" departSpeed="max" from="-658420721" to="422789542"/>
    <trip id="80" type="car" depart="160.00" departLane="best" departSpeed="max" from="-3676663#2" to="1880585#1"/>
    <trip id="82" type="car" depart="164.00" departLane="best" departSpeed="max" from="28336636#3" to="834616393#2"/>
    <trip id="84" type="car" depart="168.00" departLane="best" departSpeed="max" from="-25680833#1" to="3663849#4"/>
    <trip id="85" type="car" depart="170.00" departLane="best" departSpeed="max" from="-28350122#1" to="3663844#1"/>
    <trip id="86" type="car" depart="172.00" departLane="best" departSpeed="max" from="600446142#1" to="-3663839#4"/>
    <trip id="87" type="bus" depart="174.00" departLane="best" departSpeed="max" from="3663849#3" to="3663840#11"/>
    <trip id="88" type="car" depart="176.00" departLane="best" departSpeed="max" from="25916549" to="28350281"/>
    <trip id="89" type="car" depart="178.00" departLane="best" departSpeed="max" from="-168256686#8" to="28350122#1"/>
    <trip id="91" type="truck" depart="182.00" departLane="best" departSpeed="max" from="-3542460#1" to="-111585355#1"/>
    <trip id="92" type="car" depart="184.00" departLane="best" departSpeed="max" from="-907363810#1" to="3542461#2"/>
    <trip id="94" type="car" depart="188.00" departLane="best" departSpeed="max" from="25916549" to="237108789#1"/>
    <trip id="95" type="bus" depart="190.00" departLane="best" departSpeed="max" from="422789544#1" to="-25950752#0"/>
    <trip id="96" type="car" depart="192.00" departLane="best" departSpeed="max" from="363633973#0" to="422789547#0"/>
    <trip id="98" type="car" depart="196.00" departLane="best" departSpeed="max" from="-705279868#2" to="907363810#1"/>
    <trip id="99" type="car" depart="198.00" departLane="best" departSpeed="max" from="363633973#0" to="-559697158#0"/>
    <trip id="102" type="bus" depart="204.00" departLane="best" departSpeed="max" from="25915016#0" to="422789568#1"/>
    <trip id="103" type="car" depart="206.00" departLane="best" departSpeed="max" from="3676665#9" to="168256686#7"/>
    <trip id="104" type="truck" depart="208.00" departLane="best" departSpeed="max" from="-3663840#4" to="-28350205#0"/>
    <trip id="105" type="car" depart="210.00" departLane="best" departSpeed="max" from="-3663841#6" to="422789544#1"/>
    <trip id="106" type="car" depart="212.00" departLane="best" departSpeed="max" from="3676663#5" to="-1010747031#3"/>
    <trip id="107" type="car" depart="214.00" departLane="best" departSpeed="max" from="705279869#9" to="422789542"/>
    <trip id="109" type="car" depart="218.00" departLane="best" departSpeed="max" from="363633973#1" to="1020491549"/>
    <trip id="110" type="car" depart="220.00" departLane="best" departSpeed="max" from="25916544#6" to="1880590#0"/>
    <trip id="111" type="car" depart="222.00" departLane="best" departSpeed="max" from="3663841#0" to="600446142#1"/>
    <trip id="112" type="emergency" depart="224.00" departLane="best" departSpeed="max" from="25916544#0" to="111585323#1"/>
    <trip id="113" type="car" depart="226.00" departLane="best" departSpeed="max" from="-25680833#1" to="3663839#2"/>
    <trip id="114" type="emergency" depart="228.00" departLane="best" departSpeed="max" from="-11948850#10" to="1278511465"/>
    <trip id="115" type="car" depart="230.00" departLane="best" departSpeed="max" from="1020491549" to="-380316352#0"/>
    <trip id="116" type="emergency" depart="232.00" departLane="best" departSpeed="max" from="-1880590#9" to="11948850#10"/>
    <trip id="119" type="car" depart="238.00" departLane="best" departSpeed="max" from="-631776203#1" to="-3663846#3"/>
    <trip id="120" type="car" depart="240.00" departLane="best" departSpeed="max" from="-3663849#7" to="559697158#1"/>
    <trip id="121" type="car" depart="242.00" departLane="best" departSpeed="max" from="600446141#1" to="422789536"/>
    <trip id="122" type="car" depart="244.00" departLane="best" departSpeed="max" from="1010747031#0" to="-11948850#9"/>
    <trip id="123" type="car" depart="246.00" departLane="best" departSpeed="max" from="422789547#0" to="631776203#1"/>
    <trip id="124" type="truck" depart="248.00" departLane="best" departSpeed="max" from="700814514#1" to="705279869#1"/>
    <trip id="125" type="bus" depart="250.00" departLane="best" departSpeed="max" from="-11948850#7" to="90527580"/>
    <trip id="126" type="car" depart="252.00" departLane="best" departSpeed="max" from="-3676663#5" to="112973851#2"/>
    <trip id="128" type="car" depart="256.00" departLane="best" departSpeed="max" from="-600446141#3" to="-3676665#17"/>
    <trip id="129" type="car" depart="258.00" departLane="best" departSpeed="max" from="-143837836#0" to="90527580"/>
    <trip id="130" type="car" depart="260.00" departLane="best" departSpeed="max" from="-3542460#1" to="1010747031#2"/>
    <trip id="131" type="car" depart="262.00" departLane="best" departSpeed="max" from="25950752#0" to="422789559#1"/>
    <trip id="133" type="car" depart="266.00" departLane="best" departSpeed="max" from="-3663839#11" to="-840863329#2"/>
    <trip id="134" type="car" depart="268.00" departLane="best" departSpeed="max" from="24418178" to="602918852#3"/>
    <trip id="135" type="car" depart="270.00" departLane="best" departSpeed="max" from="-25680833#1" to="-25916544#1"/>
    <trip id="137" type="car" depart="274.00" departLane="best" departSpeed="max" from="-25916544#2" to="834616389#1"/>
    <trip id="139" type="car" depart="278.00" departLane="best" departSpeed="max" from="363633973#0" to="28350205#1"/>
    <trip id="140" type="bus" depart="280.00" departLane="best" departSpeed="max" from="3542460#0" to="26590561"/>
    <trip id="141" type="truck" depart="282.00" departLane="best" departSpeed="max" from="25915016#0" to="672675018#0"/>
    <trip id="142" type="car" depart="284.00" departLane="best" departSpeed="max" from="584591689#2" to="-28350280#0"/>
    <trip id="143" type="car" depart="286.00" departLane="best" departSpeed="max" from="-3663838#1" to="-28336636#0"/>
    <trip id="145" type="bus" depart="290.00" departLane="best" departSpeed="max" from="-25950752#1" to="3663840#10"/>
    <trip id="146" type="car" depart="292.00" departLane="best" departSpeed="max" from="168256686#2" to="422789536"/>
    <trip id="147" type="truck" depart="294.00" departLane="best" departSpeed="max" from="26397756#0" to="1010747031#5"/>
    <trip id="148" type="car" depart="296.00" departLane="best" departSpeed="max" from="700814514#1" to="3663840#10"/>
    <trip id="150" type="emergency" depart="300.00" departLane="best" departSpeed="max" from="168251834#3" to="-3676664#3"/>
    <trip id="151" type="car" depart="302.00" departLane="best" departSpeed="max" from="-3676665#3" to="1299036737#1"/>
    <trip id="152" type="car" depart="304.00" departLane="best" departSpeed="max" from="25684422#2" to="-1880590#2"/>
    <trip id="153" type="car" depart="306.00" departLane="best" departSpeed="max" from="-3676665#14" to="-26234964#0"/>
    <trip id="154" type="car" depart="308.00" departLane="best" departSpeed="max" from="168251834#2" to="25916544#0"/>
    <trip id="155" type="truck" depart="310.00" departLane="best" departSpeed="max" from="25916546" to="600446141#3"/>
    <trip id="156" type="car" depart="312.00" departLane="best" departSpeed="max" from="-747135397#3" to="3663840#11"/>
    <trip id="157" type="car" depart="314.00" departLane="best" departSpeed="max" from="630489172" to="-11948850#7"/>
    <trip id="158" type="truck" depart="316.00" departLane="best" departSpeed="max" from="-168256686#4" to="3663839#11"/>
    <trip id="159" type="car" depart="318.00" departLane="best" departSpeed="max" from="363633973#0" to="-25916553"/>
    <trip id="160" type="car" depart="320.00" departLane="best" departSpeed="max" from="28350280#0" to="3542457#1"/>
    <trip id="162" type="bus" depart="324.00" departLane="best" departSpeed="max" from="-28350280#1" to="25916544#3"/>
    <trip id="163" type="car" depart="326.00" departLane="best" departSpeed="max" from="25915014#1" to="584591696"/>
    <trip id="165" type="car" depart="330.00" departLane="best" departSpeed="max" from="-956073355#0" to="422789536"/>
    <trip id="166" type="truck" depart="332.00" departLane="best" departSpeed="max" from="-600446141#3" to="1299036737#1"/>
    <trip id="167" type="emergency" depart="334.00" departLane="best" departSpeed="max" from="28350186#0" to="168256686#2"/>
    <trip id="168" type="car" depart="336.00" departLane="best" departSpeed="max" from="-11948850#10" to="363633974#4"/>
    <trip id="170" type="car" depart="340.00" departLane="best" departSpeed="max" from="-24418179#6" to="602918861#3"/>
    <trip id="171" type="car" depart="342.00" departLane="best" departSpeed="max" from="25916563" to="90527580"/>
    <trip id="172" type="car" depart="344.00" departLane="best" departSpeed="max" from="168251834#2" to="1278511465"/>
    <trip id="173" type="car" depart="346.00" departLane="best" departSpeed="max" from="-3676665#14" to="-143837836#0"/>
    <trip id="175" type="emergency" depart="350.00" departLane="best" departSpeed="max" from="237108787" to="672675019#2"/>
    <trip id="176" type="car" depart="352.00" departLane="best" departSpeed="max" from="3676664#1" to="25915014#1"/>
    <trip id="177" type="car" depart="354.00" departLane="best" departSpeed="max" from="28350280#0" to="-380316352#0"/>
    <trip id="178" type="bus" depart="356.00" departLane="best" departSpeed="max" from="705279869#2" to="907363810#1"/>
    <trip id="179" type="car" depart="358.00" departLane="best" departSpeed="max" from="28350280#0" to="705279867#2"/>
    <trip id="180" type="car" depart="360.00" departLane="best" departSpeed="max" from="24418178" to="25950752#1"/>
    <trip id="182" type="emergency" depart="364.00" departLane="best" departSpeed="max" from="611258479#0" to="422789568#0"/>
    <trip id="184" type="car" depart="368.00" departLane="best" departSpeed="max" from="-3663839#7" to="631776203#1"/>
    <trip id="185" type="car" depart="370.00" departLane="best" departSpeed="max" from="-1880590#5" to="-3676664#5"/>
    <trip id="187" type="car" depart="374.00" departLane="best" departSpeed="max" from="25916549" to="422789542"/>
    <trip id="189" type="car" depart="378.00" departLane="best" departSpeed="max" from="-3663840#11" to="-24418179#0"/>
    <trip id="190" type="car" depart="380.00" departLane="best" departSpeed="max" from="-3542460#1" to="600446141#0"/>
    <trip id="191" type="bus" depart="382.00" departLane="best" departSpeed="max" from="737390307#2" to="-380316352#0"/>
    <trip id="193" type="car" depart="386.00" departLane="best" departSpeed="max" from="340391552" to="-363633973#4"/>
    <trip id="194" type="car" depart="388.00" departLane="best" departSpeed="max" from="-979876182" to="584591689#0"/>
    <trip id="195" type="truck" depart="390.00" departLane="best" departSpeed="max" from="-3663848#1" to="28336636#1"/>
    <trip id="197" type="truck" depart="394.00" departLane="best" departSpeed="max" from="-363633973#4" to="112973851#2"/>
    <trip id="198" type="car" depart="396.00" departLane="best" departSpeed="max" from="-26234964#1" to="8123175#2"/>
    <trip id="199" type="emergency" depart="398.00" departLane="best" departSpeed="max" from="3676662#0" to="3663838#2"/>
    <trip id="200" type="car" depart="400.00" departLane="best" departSpeed="max" from="618468225" to="422789541#0"/>
    <trip id="201" type="car" depart="402.00" departLane="best" departSpeed="max" from="-28350122#0" to="-3663849#5"/>
    <trip id="203" type="car" depart="406.00" departLane="best" departSpeed="max" from="25916546" to="505257874#2"/>
    <trip id="204" type="emergency" depart="408.00" departLane="best" departSpeed="max" from="422789547#0" to="422789536"/>
    <trip id="205" type="emergency" depart="410.00" departLane="best" departSpeed="max" from="-3676665#8" to="25171840#4"/>
    <trip id="207" type="car" depart="414.00" departLane="best" departSpeed="max" from="-705279868#2" to="611258482#1"/>
    <trip id="208" type="car" depart="416.00" departLane="best" departSpeed="max" from="25916546" to="-111585355#2"/>
    <trip id="210" type="car" depart="420.00" departLane="best" departSpeed="max" from="737390306" to="-363633973#0"/>
    <trip id="212" type="car" depart="424.00" departLane="best" departSpeed="max" from="-3663841#1" to="-11948850#4"/>
    <trip id="214" type="emergency" depart="428.00" departLane="best" departSpeed="max" from="-25915016#3" to="363633973#3"/>
    <trip id="217" type="truck" depart="434.00" departLane="best" departSpeed="max" from="3542460#0" to="-340391552"/>
    <trip id="218" type="car" depart="436.00" departLane="best" departSpeed="max" from="-1010747031#5" to="191619082#2"/>
    <trip id="219" type="car" depart="438.00" departLane="best" departSpeed="max" from="-3676664#3" to="1010747031#5"/>
    <trip id="220" type="car" depart="440.00" departLane="best" departSpeed="max" from="25684422#1" to="-25916558"/>
    <trip id="222" type="car" depart="444.00" departLane="best" departSpeed="max" from="-11948850#9" to="505257874#2"/>
    <trip id="223" type="car" depart="446.00" departLane="best" departSpeed="max" from="24418178" to="111585323#1"/>
    <trip id="224" type="car" depart="448.00" departLane="best" departSpeed="max" from="1010747032" to="-584591689#2"/>
    <trip id="225" type="truck" depart="450.00" departLane="best" departSpeed="max" from="340391552" to="-363633974#1"/>
    <trip id="226" type="truck" depart="452.00" departLane="best" departSpeed="max" from="-3663839#11" to="3663849#7"/>
    <trip id="227" type="car" depart="454.00" departLane="best" departSpeed="max" from="26234980#0" to="25680833#1"/>
    <trip id="228" type="truck" depart="456.00" departLane="best" departSpeed="max" from="959156057" to="25916544#0"/>
    <trip id="229" type="car" depart="458.00" departLane="best" departSpeed="max" from="-893279609#2" to="-28336636#0"/>
    <trip id="231" type="car" depart="462.00" departLane="best" departSpeed="max" from="11948850#2" to="3663840#6"/>
    <trip id="232" type="car" depart="464.00" departLane="best" departSpeed="max" from="-658420721" to="25680833#1"/>
    <trip id="233" type="car" depart="466.00" departLane="best" departSpeed="max" from="25916549" to="559697158#2"/>
    <trip id="234" type="car" depart="468.00" departLane="best" departSpeed="max" from="-41936508#1" to="168251834#2"/>
    <trip id="235" type="emergency" depart="470.00" departLane="best" departSpeed="max" from="737390307#2" to="505257874#2"/>
    <trip id="237" type="car" depart="474.00" departLane="best" departSpeed="max" from="-28336636#4" to="-3663844#2"/>
    <trip id="238" type="truck" depart="476.00" departLane="best" departSpeed="max" from="-893279609#2" to="-840863329#1"/>
    <trip id="240" type="car" depart="480.00" departLane="best" departSpeed="max" from="875743381" to="-28350280#0"/>
    <trip id="241" type="car" depart="482.00" departLane="best" departSpeed="max" from="416688408#0" to="893279609#2"/>
    <trip id="244" type="car" depart="488.00" departLane="best" departSpeed="max" from="-893279609#2" to="3676665#1"/>
    <trip id="245" type="car" depart="490.00" departLane="best" departSpeed="max" from="-1299036737#1" to="-25915016#0"/>
    <trip id="247" type="car" depart="494.00" departLane="best" departSpeed="max" from="168251834#0" to="-28350186#0"/>
    <trip id="248" type="car" depart="496.00" departLane="best" departSpeed="max" from="340391552" to="840863329#1"/>
    <trip id="249" type="car" depart="498.00" departLane="best" departSpeed="max" from="3663853" to="-26234980#0"/>
    <trip id="250" type="car" depart="500.00" departLane="best" departSpeed="max" from="-111585355#2" to="893279609#2"/>
    <trip id="251" type="emergency" depart="502.00" departLane="best" departSpeed="max" from="25916558" to="-28336636#3"/>
    <trip id="252" type="car" depart="504.00" departLane="best" departSpeed="max" from="-840863329#2" to="422789566#2"/>
    <trip id="253" type="car" depart="506.00" departLane="best" departSpeed="max" from="-3663841#5" to="1010747032"/>
    <trip id="254" type="car" depart="508.00" departLane="best" departSpeed="max" from="-28350122#0" to="422789566#2"/>
    <trip id="255" type="car" depart="510.00" departLane="best" departSpeed="max" from="-112973851#2" to="-24418179#0"/>
    <trip id="257" type="emergency" depart="514.00" departLane="best" departSpeed="max" from="-600446141#3" to="-28350280#0"/>
    <trip id="258" type="car" depart="516.00" departLane="best" departSpeed="max" from="-3676662#2" to="90527580"/>
    <trip id="259" type="car" depart="518.00" departLane="best" departSpeed="max" from="25916549" to="-26234980#0"/>
    <trip id="260" type="car" depart="520.00" departLane="best" departSpeed="max" from="737390306" to="3542460#1"/>
    <trip id="262" type="car" depart="524.00" departLane="best" departSpeed="max" from="-658420721" to="90527580"/>
    <trip id="263" type="car" depart="526.00" departLane="best" departSpeed="max" from="-26164421#0" to="-3676663#4"/>
    <trip id="264" type="car" depart="528.00" departLane="best" departSpeed="max" from="422789566#2" to="-602918852#1"/>
    <trip id="265" type="car" depart="530.00" departLane="best" departSpeed="max" from="737390307#2" to="672675019#2"/>
    <trip id="266" type="car" depart="532.00" departLane="best" departSpeed="max" from="-3663844#4" to="600446141#3"/>
    <trip id="267" type="car" depart="534.00" departLane="best" departSpeed="max" from="-28336636#1" to="-416688435#0"/>
    <trip id="269" type="bus" depart="538.00" departLane="best" departSpeed="max" from="-3542460#1" to="1880590#1"/>
    <trip id="271" type="car" depart="542.00" departLane="best" departSpeed="max" from="3663841#4" to="25950752#1"/>
    <trip id="272" type="truck" depart="544.00" departLane="best" departSpeed="max" from="-112973851#2" to="-340391552"/>
    <trip id="274" type="car" depart="548.00" departLane="best" departSpeed="max" from="-3663839#11" to="24418179#6"/>
    <trip id="275" type="car" depart="550.00" departLane="best" departSpeed="max" from="959156057" to="-363633973#0"/>
    <trip id="276" type="truck" depart="552.00" departLane="best" departSpeed="max" from="-25916544#3" to="422789542"/>
    <trip id="278" type="emergency" depart="556.00" departLane="best" departSpeed="max" from="-3542460#1" to="422789561"/>
    <trip id="279" type="emergency" depart="558.00" departLane="best" departSpeed="max" from="25916553" to="-24418179#0"/>
    <trip id="280" type="car" depart="560.00" departLane="best" departSpeed="max" from="-411101099#0" to="-24418179#0"/>
    <trip id="281" type="car" depart="562.00" departLane="best" departSpeed="max" from="-25916544#1" to="1010747031#5"/>
    <trip id="282" type="car" depart="564.00" departLane="best" departSpeed="max" from="-3663839#11" to="559697158#2"/>
    <trip id="283" type="car" depart="566.00" departLane="best" departSpeed="max" from="-3663841#3" to="25680833#1"/>
    <trip id="284" type="car" depart="568.00" departLane="best" departSpeed="max" from="-112973851#2" to="422789542"/>
    <trip id="285" type="car" depart="570.00" departLane="best" departSpeed="max" from="-24418179#3" to="26165357#1"/>
    <trip id="286" type="bus" depart="572.00" departLane="best" departSpeed="max" from="363633974#1" to="11948850#10"/>
    <trip id="287" type="car" depart="574.00" departLane="best" departSpeed="max" from="237108787" to="112973851#2"/>
    <trip id="288" type="truck" depart="576.00" departLane="best" departSpeed="max" from="-3542460#1" to="3663844#3"/>
    <trip id="290" type="bus" depart="580.00" departLane="best" departSpeed="max" from="-168251834#5" to="-28350186#3"/>
    <trip id="291" type="car" depart="582.00" departLane="best" departSpeed="max" from="-505257874#2" to="-28350281"/>
    <trip id="292" type="car" depart="584.00" departLane="best" departSpeed="max" from="-11948849#2" to="90714001#1"/>
    <trip id="293" type="car" depart="586.00" departLane="best" departSpeed="max" from="3663849#5" to="979876182"/>
    <trip id="294" type="truck" depart="588.00" departLane="best" departSpeed="max" from="705279869#4" to="672675019#2"/>
    <trip id="296" type="car" depart="592.00" departLane="best" departSpeed="max" from="411101099#1" to="-25916544#0"/>
    <trip id="297" type="car" depart="594.00" departLane="best" departSpeed="max" from="26588093#1" to="-25916563"/>
    <trip id="298" type="car" depart="596.00" departLane="best" departSpeed="max" from="-907363810#1" to="25680833#1"/>
    <trip id="299" type="truck" depart="598.00" departLane="best" departSpeed="max" from="-25950752#0" to="907363810#1"/>
    <trip id="301" type="emergency" depart="602.00" departLane="best" departSpeed="max" from="-28350122#1" to="864453809"/>
    <trip id="302" type="car" depart="604.00" departLane="best" departSpeed="max" from="-168256686#8" to="-3676665#1"/>
    <trip id="303" type="car" depart="606.00" departLane="best" departSpeed="max" from="28350186#2" to="-3663848#0"/>
    <trip id="305" type="truck" depart="610.00" departLane="best" departSpeed="max" from="422789568#1" to="505257874#2"/>
    <trip id="307" type="car" depart="614.00" departLane="best" departSpeed="max" from="-979876182" to="834616390"/>